/*--------------------------------*- C++ -*----------------------------------*\
| =========                 |                                                 |
| \\      /  F ield         | OpenFOAM: The Open Source CFD Toolbox           |
|  \\    /   O peration     | Version:  dev                                   |
|   \\  /    A nd           | Web:      www.OpenFOAM.org                      |
|    \\/     M anipulation  |                                                 |
\*---------------------------------------------------------------------------*/
FoamFile
{
    version     2.0;
    format      ascii;
    class       dictionary;
    location    "constant";
    object      transportProperties;
}
// * * * * * * * * * * * * * * * * * * * * * * * * * * * * * * * * * * * * * //

transportModel Newtonian;

// Argon gas properties at 2500 K and 1 atm
rho  0.195;    // density (kg/m3) - from ideal gas law: P*M/(R*T)
nu   3.85e-4;  // kinematic viscosity (m2/s) - for argon at 2500 K
               // Dynamic viscosity mu ≈ 7.5e-5 Pa·s at 2500 K

// Thermal properties
cp   520.0;    // Specific heat capacity (J/kg/K) for argon
kappa 0.0866;  // Thermal conductivity (W/m/K) at 2500 K

// Electrical conductivity (S/m) - for argon plasma at 2500 K, 1 atm
// At this temperature, argon is partially ionized with σ ≈ 100-1000 S/m
elcond_melt  11.9;  // JÜLICH, ARGAS II FACILITY
maxRelDiff 0; // Call elmer on very time step

// ************************************************************************* //
