Header
  CHECK KEYWORDS Warn
  Mesh DB "." "meshElmer"
  Include Path ""
  Results Directory ""
End

$frequency = 5000.0

Simulation
  Max Output Level = 3
  Coordinate System = Cartesian
  Angular Frequency = $2*pi*frequency

  Simulation Type = Steady
  Steady State Max Iterations = 10000000
  Steady State Min Iterations = 10000000

  Solver Input File = case.sif
  Post File = case.vtu
  Output Intervals = 2
End

Constants
  Permittivity of Vacuum = 8.8542e-12
  Permeability of Vacuum = 1.257e-6
End

Body 3
  Target Bodies(1) = 1
  Name = "melt"
  Equation = 1
  Material = 3
End

Body 4
  Target Bodies(1) = 2
  Name = "air"
  Equation = 1
  Material = 2
End

Solver 1
  Equation = OpenFOAM2Elmer
  Procedure = "OpenFOAM2Elmer" "OpenFOAM2ElmerSolver"

  Target Variable 1 = String "OF conductivity"
End

Solver 2
  Equation = "MDynamics"
  Variable = AV[AV re:1 AV im:1]
  Procedure = "MagnetoDynamics2D" "MagnetoDynamics2DHarmonic"

  Linear System Symmetric = True

  Linear System Solver = "Iterative"
  Linear System Preconditioning = ILU0
  Linear System Residual Output = 10
  Linear System Max Iterations = 500
  Linear System Iterative Method = BiCGStabl
  Linear System Convergence Tolerance = 1.0e-8

  Steady State Convergence Tolerance = 1e-08
  Nonlinear System Max Iterations = 3
  Nonlinear System Convergence Tolerance = 1.0e-6
  Nonlinear System Relaxation Factor = 1

  Exported Variable 1 = -dg "OF conductivity"
  Exported Variable 1 Mask = String "material: mapping"
End

Solver 3
  Equation = "Postprocess"

  Potential Variable = String "AV"
  Procedure = "MagnetoDynamics" "MagnetoDynamicsCalcFields"

  Linear System Solver = Iterative
  Linear System Iterative Method = CG
  Linear System Symmetric = True
  Linear System Max Iterations = 100
  Linear System Preconditioning = None
  Linear System Convergence Tolerance = 1.0e-8
  Steady State Convergence Tolerance = 1e-08

  Nonlinear System Max Iterations = 3
  Nonlinear System Convergence Tolerance = 1.0e-8

  Calculate Current Density = Logical True
  Calculate Magnetic Field Strength = Logical True
  Calculate JxB = Logical True
End

Solver 4
  Equation = ElmerToOpenFOAM
  Procedure = "Elmer2OpenFOAM" "Elmer2OpenFOAMSolver"

  Target Variable 1 = jxb re 1
  Target Variable 2 = jxb re 2
  Target Variable 3 = jxb re 3
End 

Equation 1
  Name = "MGDyn"
  Active Solvers(4) = 1 2 3 4
End

Material 2
  Name = "Insulating Walls"
  ! Ideal electrical insulator: no conduction currents in walls
  Electric Conductivity = 0.0
  Relative Permittivity = 1
  Relative Permeability = 1
End

Material 3
  Name = "Heated Argon"
  ! Conductivity field comes from OpenFOAM coupling
  Electric Conductivity = Equals "OF conductivity"
  Relative Permittivity = 1
  Relative Permeability = 1
  mapping = Logical True
End

Boundary Condition 1
  Target Boundaries(1) = 5
  AV re {e} = Real 0.0
  AV im {e} = Real 0.0
End

Solver 2
  Reference Norm = Real 6.164645037-04
  Reference Norm Tolerance = Real 1E-4
End
