Header
  CHECK KEYWORDS Fatal
  Mesh DB "." "meshElmer"
End

Simulation
  Coordinate System = String "Cartesian 3D"
  Simulation Type = Steady

  Steady State Max Iterations = 1000000
  Steady State Min Iterations = 1000000

  Output Intervals = 1
  Post File = case.ep
End


! -------------------------
! Bodies / Equation
! -------------------------
Body 1
  Name = "fluid"
  Target Bodies(1) = 1
  Equation = 1
  Material = 1
  Body Force = 1
End

Equation 1
  Name = "EOF_HallChannel"
  Active Solvers = 1 2 3 4
End


! --------------------------------------------------
! Declare scalar fields (Ux, Uy, Uz, Bx, By, Bz, sigma)
! --------------------------------------------------
Solver 1
  Exec Solver = Always
  Equation = "DeclareConductivity"
  Procedure = "AllocateSolver" "AllocateSolver"
  Variable = "Electric Conductivity"
  Variable DOFs = 1
End



! --------------------------------------------------
! OpenFOAM -> Elmer: populate scalar fields
! --------------------------------------------------
Solver 2
  Exec Solver = Always
  Equation = "OpenFOAM2Elmer"
  Procedure = "OpenFOAM2Elmer" "OpenFOAM2ElmerSolver"

  Target Variable 1 = String "Electric Conductivity"
  Target Variable 2 = String "Ux"
  Target Variable 3 = String "Uy"
  Target Variable 4 = String "Uz"
  Target Variable 5 = String "Bx"
  Target Variable 6 = String "By"
  Target Variable 7 = String "Bz"
End


! --------------------------------------------------
! Static current solve (UxB handled internally)
! --------------------------------------------------
Solver 3
  Exec Solver = Always
  Equation = "Static Current Solver"
  Procedure = "MHDSolve" "StatCurrentSolver"

  Variable = Potential
  Variable DOFs = 1

  ! IncludeUxB = Logical True

  ! Imported fields (owned by MHDSolve)
  Exported Variable 1 = Ux
  Exported Variable 2 = Uy
  Exported Variable 3 = Uz
  Exported Variable 4 = Bx
  Exported Variable 5 = By
  Exported Variable 6 = Bz

  Calculate Volume Current = Logical True
  Calculate Joule Heating  = Logical True

  Linear System Solver = Iterative
  Linear System Iterative Method = BiCGStab
  Linear System Preconditioning = ILU0
  Linear System Max Iterations = 500
  Linear System Convergence Tolerance = 1.0e-10
End


! --------------------------------------------------
! Elmer -> OpenFOAM: export results
! --------------------------------------------------
Solver 4
  Exec Solver = Always
  Equation = "Elmer2OpenFOAM"
  Procedure = "Elmer2OpenFOAM" "Elmer2OpenFOAMSolver"

  Target Variable 1 = String "Volume Current 1"
  Target Variable 2 = String "Volume Current 2"
  Target Variable 3 = String "Volume Current 3"

  Target Variable 4 = String "Joule Heating"
End

! -------------------------
! Material
! -------------------------
Material 1
  Name = "Conducting Fluid"

  Electric Conductivity = Variable "Electric Conductivity"
    Real MATC "tx"
End


! -------------------------
! Body Force
! -------------------------
Body Force 1
  Name = "NoSource"
End


! -------------------------
! Boundary Conditions
! -------------------------
Boundary Condition 1
  ! FaradayMinusY (ground)
  Target Boundaries(1) = 1
  Potential = Real 0.0
End

Boundary Condition 2
  ! FaradayPlusY (current injection)
  Target Boundaries(1) = 2
  Current Density BC = Logical True
  Current Density = Real 10.0
End

Boundary Condition 3
  ! SideWallsZ
  Target Boundaries(1) = 5
  Current Density BC = Logical True
  Current Density = Real 0.0
End
