Header
  CHECK KEYWORDS Warn
  Mesh DB "." "meshElmer"
End

Simulation
  Coordinate System = String "Cartesian 3D"
  Simulation Type = Steady

  ! One steady-state iteration per coupling step (avoids blocking on 2nd recv from OpenFOAM)
  Steady State Max Iterations = 1000
  Steady State Min Iterations = 1000

  Output Intervals = 1
  Post File = case.ep
End


! -------------------------
! Body / One master equation (like your working pattern)
! -------------------------
Body 1
  Name = "fluid"
  Target Bodies(1) = 1
  Equation = 1
  Material = 1
  Body Force = 1
End

Equation 1
  Name = "EOF_HallChannel"
  Active Solvers(10) = 1 2 3 4 5 6 7 8 9 10
End


! --------------------------------------------------
! 1 Scalar Solvers
! --------------------------------------------------

Solver 1
  Exec Solver = Always
  Equation = "DeclareConductivity"
  Procedure = "AllocateSolver" "AllocateSolver"
  Variable = String "Electric Conductivity"
  Variable DOFs = 1
End

Solver 2
  Exec Solver = Always
  Equation = "DeclareUx"
  Procedure = "AllocateSolver" "AllocateSolver"
  Variable = String "Ux"
  Variable DOFs = 1
End

Solver 3
  Exec Solver = Always
  Equation = "DeclareUy"
  Procedure = "AllocateSolver" "AllocateSolver"
  Variable = String "Uy"
  Variable DOFs = 1
End

Solver 4
  Exec Solver = Always
  Equation = "DeclareUz"
  Procedure = "AllocateSolver" "AllocateSolver"
  Variable = String "Uz"
  Variable DOFs = 1
End

Solver 5
  Exec Solver = Always
  Equation = "DeclareBx"
  Procedure = "AllocateSolver" "AllocateSolver"
  Variable = String "Bx"
  Variable DOFs = 1
End

Solver 6
  Exec Solver = Always
  Equation = "DeclareBy"
  Procedure = "AllocateSolver" "AllocateSolver"
  Variable = String "By"
  Variable DOFs = 1
End

Solver 7
  Exec Solver = Always
  Equation = "DeclareBz"
  Procedure = "AllocateSolver" "AllocateSolver"
  Variable = String "Bz"
  Variable DOFs = 1
End


! --------------------------------------------------
! 2 OpenFOAM -> Elmer
! --------------------------------------------------
Solver 8
  Exec Solver = Always
  Equation = "OpenFOAM2Elmer"
  Procedure = "OpenFOAM2Elmer" "OpenFOAM2ElmerSolver"

  Target Variable 1 = String "Electric Conductivity"
  Target Variable 2 = String "Ux"
  Target Variable 3 = String "Uy"
  Target Variable 4 = String "Uz"
  Target Variable 5 = String "Bx"
  Target Variable 6 = String "By"
  Target Variable 7 = String "Bz"
End


! --------------------------------------------------
! 3 Custom Elmer MHD Solver
! --------------------------------------------------
Solver 9
  Exec Solver = Always
  Equation = "Static Current Solver"
  Procedure = "MHDSolve" "StatCurrentSolver"

  Variable = Potential
  Variable DOFs = 1

  Calculate Volume Current = Logical True
  Calculate Joule Heating  = Logical True

  ! --------------------------------------------------
  ! Nonlinear system (Picard, damped)
  ! --------------------------------------------------
  Nonlinear System Max Iterations = 40
  Nonlinear System Convergence Tolerance = 5.0e-3
  ! Slightly higher relaxation speeds convergence for this weakly nonlinear coupling.
  Nonlinear System Relaxation Factor = 0.7
  Nonlinear System Convergence Without Constraints = Logical True
  
  ! Force collections matrix to be rebuilt every iteration
  Linear System Refactorize = Logical True



  ! Force Picard only (no Newton)
  Nonlinear System Newton After Iterations = 0
  Nonlinear System Newton After Tolerance  = 1.0e-3

  ! --------------------------------------------------
  ! Linear system
  ! --------------------------------------------------
  Linear System Solver = Iterative
  Linear System Iterative Method = GCR
  Linear System GCR Restart = 200
  Linear System Symmetric = False
  Linear System Preconditioning = ILU1
  Linear System Max Iterations = 12000
  Linear System Convergence Tolerance = 1.0e-3
  Linear System Abort Not Converged = False
  Linear System Scaling = False
  Linear System Residual Output = 500
End



! --------------------------------------------------
! 4 Elmer -> OpenFOAM: export computed results
! --------------------------------------------------
Solver 10
  Exec Solver = Always
  Equation = "Elmer2OpenFOAM"
  Procedure = "Elmer2OpenFOAM" "Elmer2OpenFOAMSolver"

  Target Variable 1 = String "Volume Current 1"
  Target Variable 2 = String "Volume Current 2"
  Target Variable 3 = String "Volume Current 3"
  Target Variable 4 = String "Joule Heating"
  Target Variable 5 = String "Potential"
End


! -------------------------
! Material
! -------------------------
Material 1
  Name = "Conducting Fluid"

  Electric Conductivity = Variable "Electric Conductivity"
    Real MATC "tx"
End


! -------------------------
! Body Force: none
! -------------------------
Body Force 1
  Name = "NoSource"
End

! -------------------------
! Boundary Conditions
! -------------------------
!   InletX (20)           -> 1
!   OutletX (21)          -> 2
!   InsulatorSurface (30) -> 3
!   CathodeSurface_1 (40) -> 4    AnodeSurface_1 (41) -> 5
!   CathodeSurface_2 (42) -> 6    AnodeSurface_2 (43) -> 7
!   CathodeSurface_3 (44) -> 8    AnodeSurface_3 (45) -> 9
!   CathodeSurface_4 (46) -> 10   AnodeSurface_4 (47) -> 11

Boundary Condition 1
  ! CathodeSurface_1
  Target Boundaries(1) = 4
  Electrode Pair = Integer 1
  Electrode Sign = String "minus"
  Electrode Resistance = Real 0.001
End

Boundary Condition 2
  ! AnodeSurface_1
  Target Boundaries(1) = 5
  Electrode Pair = Integer 1
  Electrode Sign = String "plus"
  Electrode Resistance = Real 0.001
End

Boundary Condition 3
  ! CathodeSurface_2
  Target Boundaries(1) = 6
  Electrode Pair = Integer 2
  Electrode Sign = String "minus"
  Electrode Resistance = Real 0.001
End

Boundary Condition 4
  ! AnodeSurface_2
  Target Boundaries(1) = 7
  Electrode Pair = Integer 2
  Electrode Sign = String "plus"
  Electrode Resistance = Real 0.001
End

Boundary Condition 5
  ! CathodeSurface_3
  Target Boundaries(1) = 8
  Electrode Pair = Integer 3
  Electrode Sign = String "minus"
  Electrode Resistance = Real 0.001
End

Boundary Condition 6
  ! AnodeSurface_3
  Target Boundaries(1) = 9
  Electrode Pair = Integer 3
  Electrode Sign = String "plus"
  Electrode Resistance = Real 0.001
End

Boundary Condition 7
  ! CathodeSurface_4
  Target Boundaries(1) = 10
  Electrode Pair = Integer 4
  Electrode Sign = String "minus"
  Electrode Resistance = Real 0.001
End

Boundary Condition 8
  ! AnodeSurface_4
  Target Boundaries(1) = 11
  Electrode Pair = Integer 4
  Electrode Sign = String "plus"
  Electrode Resistance = Real 0.001
End

Boundary Condition 9
  ! InsulatorSurface
  Target Boundaries(1) = 3
End

Boundary Condition 10
  ! InletX
  Target Boundaries(1) = 1
End

Boundary Condition 11
  ! OutletX
  Target Boundaries(1) = 2
End

